k23/D052609/Lines.dss
New Line.line0 Units=km Length=0.10372 bus1=n506357.1.2.3 bus2=n506358.1.2.3 switch=n enabled=y phases=3 Linecode=185_SQ_MM_CU_3
New Line.line1 Units=km Length=0.001 bus1=n506358.1.2.3 bus2=n506359.1.2.3 switch=n enabled=y phases=3 Linecode=66_HDCU_(19/2.11)_3
New Line.line10 Units=km Length=0.034659999999999996 bus1=n506362.1.2.3 bus2=n506363.1.2.3 switch=n enabled=y phases=3 Linecode=66_HDCU_(19/2.11)_3
New Line.line11 Units=km Length=0.028280000000000003 bus1=n506363.1.2.3 bus2=n506364.1.2.3 switch=n enabled=y phases=3 Linecode=66_HDCU_(19/2.11)_3
New Line.line12 Units=km Length=0.02911 bus1=n506364.1.2.3 bus2=n506346.1.2.3 switch=n enabled=y phases=3 Linecode=66_HDCU_(19/2.11)_3
New Line.line13 Units=km Length=0.0021000000000000003 bus1=n506346.1.2.3 bus2=n761083.1.2.3 switch=n enabled=y phases=3 Linecode=66_HDCU_(19/2.11)_3
New Line.line14 Units=km Length=0.0207 bus1=n506361.1.2.3 bus2=n761089.1.2.3 switch=n enabled=y phases=3 Linecode=unknown_linecode_3
New Line.line15 Units=km Length=0.0025 bus1=n506361.1.2.3 bus2=n761084.1.2.3 switch=n enabled=y phases=3 Linecode=7/4.4_Al_3
New Line.line16 Units=km Length=0.002 bus1=n506362.1.2.3 bus2=n761087.1.2.3 switch=n enabled=y phases=3 Linecode=66_HDCU_(19/2.11)_3
New Line.line17 Units=km Length=0.001 bus1=n506346.1.2.3 bus2=n761090.1.2.3 switch=n enabled=y phases=3 Linecode=66_HDCU_(19/2.11)_3
New Line.line2 Units=km Length=0.001 bus1=n506359.1.2.3 bus2=n506360.1.2.3 switch=n enabled=y phases=3 Linecode=66_HDCU_(19/2.11)_3
New Line.line3 Units=km Length=0.04157 bus1=n506360.1.2.3 bus2=n506348.1.2.3 switch=n enabled=y phases=3 Linecode=66_HDCU_(19/2.11)_3
New Line.line4 Units=km Length=0.001 bus1=n506348.1.2.3 bus2=n506361.1.2.3 switch=n enabled=y phases=3 Linecode=66_HDCU_(19/2.11)_3
New Line.line5 Units=km Length=0.001 bus1=n506359.1.2.3 bus2=n761088.1.2.3 switch=n enabled=y phases=3 Linecode=unknown_linecode_3
New Line.line6 Units=km Length=0.032909999999999995 bus1=n506361.1.2.3 bus2=n506334.1.2.3 switch=n enabled=y phases=3 Linecode=66_HDCU_(19/2.11)_3
New Line.line7 Units=km Length=0.001 bus1=n506334.1.2.3 bus2=n761079.1.2.3 switch=n enabled=y phases=3 Linecode=66_HDCU_(19/2.11)_3
New Line.line8 Units=km Length=0.03058 bus1=n506360.1.2.3 bus2=n506356.1.2.3 switch=n enabled=y phases=3 Linecode=66_HDCU_(19/2.11)_3
New Line.line9 Units=km Length=0.001 bus1=n506356.1.2.3 bus2=n506362.1.2.3 switch=n enabled=y phases=3 Linecode=66_HDCU_(19/2.11)_3
